* PEX produced on Wed Apr 19 01:52:19 PM CEST 2023 using /foss/tools/iic-osic/iic-pex.sh with m=1 and s=1
* NGSPICE file created from hpretl_tt03_temperature_sensor.ext - technology: sky130A

.subckt hpretl_tt03_temperature_sensor io_in[1] io_in[2] io_in[3] io_in[4] io_in[5]
+ io_in[6] io_in[7] io_out[0] io_out[1] io_out[2] io_out[3] io_out[4] io_out[5] io_out[6]
+ io_out[7] io_in[0] vccd1 vssd1
X0 clkbuf_1_1__f__0390_.A a_4802_27247# vccd1 vccd1 sky130_fd_pr__pfet_01v8_hvt ad=0.14 pd=1.28 as=0.14 ps=1.28 w=1 l=0.15
X1 vccd1 a_7389_25335# _0825_.A1 vccd1 sky130_fd_pr__pfet_01v8_hvt ad=0.26 pd=2.52 as=0.135 ps=1.27 w=1 l=0.15
X2 vssd1 a_7226_16885# _0518_.Y vssd1 sky130_fd_pr__nfet_01v8 ad=0.169 pd=1.82 as=0.08775 ps=0.92 w=0.65 l=0.15
X3 _0594_.C a_15759_1385# vssd1 vssd1 sky130_fd_pr__nfet_01v8 ad=0.169 pd=1.82 as=0.10075 ps=0.96 w=0.65 l=0.15
X4 vssd1 a_28015_5755# a_27973_5487# vssd1 sky130_fd_pr__nfet_01v8 ad=0.1092 pd=1.36 as=0.066 ps=0.745 w=0.42 l=0.15
X5 a_10356_10089# _0475_.X a_9895_10089# vccd1 sky130_fd_pr__pfet_01v8_hvt ad=0.105 pd=1.21 as=0.4125 ps=1.825 w=1 l=0.15
X6 a_16573_26159# _1052_.D vccd1 vccd1 sky130_fd_pr__pfet_01v8_hvt ad=0.05775 pd=0.695 as=0.1092 ps=1.36 w=0.42 l=0.15
X8 _0544_.C a_13551_6031# vssd1 vssd1 sky130_fd_pr__nfet_01v8 ad=0.169 pd=1.82 as=0.102375 ps=0.965 w=0.65 l=0.15
X10 vccd1 _0679_.A1 a_8478_9295# vccd1 sky130_fd_pr__pfet_01v8_hvt ad=0.26 pd=2.52 as=0.1525 ps=1.305 w=1 l=0.15
X11 _1019_.Q a_21759_27515# vssd1 vssd1 sky130_fd_pr__nfet_01v8 ad=0.169 pd=1.82 as=0.08775 ps=0.92 w=0.65 l=0.15
X12 a_10309_9673# a_9319_9301# a_10183_9295# vssd1 sky130_fd_pr__nfet_01v8 ad=0.066 pd=0.745 as=0.0684 ps=0.74 w=0.36 l=0.15
X14 vccd1 _0523_.B1 a_16853_9001# vccd1 sky130_fd_pr__pfet_01v8_hvt ad=0.155 pd=1.31 as=0.16 ps=1.32 w=1 l=0.15
X15 vccd1 a_2114_1653# _0860_.A vccd1 sky130_fd_pr__pfet_01v8_hvt ad=0.1425 pd=1.285 as=0.135 ps=1.27 w=1 l=0.15
X17 vccd1 _0893_.CLK a_24775_12565# vccd1 sky130_fd_pr__pfet_01v8_hvt ad=0.0864 pd=0.91 as=0.1664 ps=1.8 w=0.64 l=0.15
X18 vssd1 _0660_.X a_20635_1679# vssd1 sky130_fd_pr__nfet_01v8 ad=0.10725 pd=0.98 as=0.169 ps=1.82 w=0.65 l=0.15
X19 a_19099_4943# a_18317_4949# a_19015_4943# vccd1 sky130_fd_pr__pfet_01v8_hvt ad=0.0882 pd=0.84 as=0.0567 ps=0.69 w=0.42 l=0.15
X21 a_3394_26677# a_3226_26703# vccd1 vccd1 sky130_fd_pr__pfet_01v8_hvt ad=0.1095 pd=1.075 as=0.178875 ps=1.26 w=0.75 l=0.15
X22 _1057_.Q a_15503_17973# vssd1 vssd1 sky130_fd_pr__nfet_01v8 ad=0.169 pd=1.82 as=0.08775 ps=0.92 w=0.65 l=0.15
X24 a_24209_20175# _0965_.D vccd1 vccd1 sky130_fd_pr__pfet_01v8_hvt ad=0.05775 pd=0.695 as=0.1092 ps=1.36 w=0.42 l=0.15
X25 _0845_.Y _0845_.C1 a_3993_29673# vccd1 sky130_fd_pr__pfet_01v8_hvt ad=0.14 pd=1.28 as=0.265 ps=2.53 w=1 l=0.15
X28 a_14913_14013# _0511_.D a_14813_14013# vssd1 sky130_fd_pr__nfet_01v8 ad=0.0609 pd=0.71 as=0.0735 ps=0.77 w=0.42 l=0.15
X29 vssd1 _0927_.D a_22940_15279# vssd1 sky130_fd_pr__nfet_01v8 ad=0.17225 pd=1.83 as=0.06825 ps=0.86 w=0.65 l=0.15
X30 a_9942_11471# a_9503_11477# a_9857_11471# vssd1 sky130_fd_pr__nfet_01v8 ad=0.0621 pd=0.705 as=0.0813 ps=0.83 w=0.36 l=0.15
X32 temp1.dac.parallel_cells\[4\].vdac_batch.einvp_batch\[12\].vref.Z temp1.dac.parallel_cells\[4\].vdac_batch.einvp_batch\[12\].pupd.A a_15916_29967# vccd1 sky130_fd_pr__pfet_01v8_hvt ad=0.27 pd=2.54 as=0.1825 ps=1.365 w=1 l=0.15
X33 vccd1 a_23891_17999# a_24059_17973# vccd1 sky130_fd_pr__pfet_01v8_hvt ad=0.135 pd=1.27 as=0.27 ps=2.54 w=1 l=0.15
X34 vccd1 _0582_.A a_20083_15936# vccd1 sky130_fd_pr__pfet_01v8_hvt ad=0.0567 pd=0.69 as=0.1092 ps=1.36 w=0.42 l=0.15
X35 a_11782_18909# a_11343_18543# a_11697_18543# vssd1 sky130_fd_pr__nfet_01v8 ad=0.0621 pd=0.705 as=0.0813 ps=0.83 w=0.36 l=0.15
X36 a_14372_29199# temp1.dac.parallel_cells\[4\].vdac_batch.einvp_batch\[13\].pupd.TE vssd1 vssd1 sky130_fd_pr__nfet_01v8 ad=0.235625 pd=1.375 as=0.097 ps=0.975 w=0.65 l=0.15
X37 vssd1 _0844_.B a_3154_24893# vssd1 sky130_fd_pr__nfet_01v8 ad=0.0567 pd=0.69 as=0.05775 ps=0.695 w=0.42 l=0.15
X38 vssd1 a_10811_2741# a_10769_3145# vssd1 sky130_fd_pr__nfet_01v8 ad=0.1092 pd=1.36 as=0.066 ps=0.745 w=0.42 l=0.15
X39 a_9865_11249# _0466_.A a_9284_10901# vccd1 sky130_fd_pr__pfet_01v8_hvt ad=0.0864 pd=0.91 as=0.0928 ps=0.93 w=0.64 l=0.15
X40 vccd1 a_4040_10901# _0745_.A2 vccd1 sky130_fd_pr__pfet_01v8_hvt ad=0.154 pd=1.335 as=0.135 ps=1.27 w=1 l=0.15
X42 a_9765_4399# _0959_.D vccd1 vccd1 sky130_fd_pr__pfet_01v8_hvt ad=0.05775 pd=0.695 as=0.1092 ps=1.36 w=0.42 l=0.15
X43 vssd1 a_24335_6005# a_24293_6409# vssd1 sky130_fd_pr__nfet_01v8 ad=0.1092 pd=1.36 as=0.066 ps=0.745 w=0.42 l=0.15
X44 vccd1 _0521_.A a_13183_7232# vccd1 sky130_fd_pr__pfet_01v8_hvt ad=0.0567 pd=0.69 as=0.1092 ps=1.36 w=0.42 l=0.15
X45 a_12441_17705# _0797_.A1 vccd1 vccd1 sky130_fd_pr__pfet_01v8_hvt ad=0.265 pd=2.53 as=0.1475 ps=1.295 w=1 l=0.15
X46 vssd1 a_8545_14709# _0546_.X vssd1 sky130_fd_pr__nfet_01v8 ad=0.25675 pd=1.44 as=0.169 ps=1.82 w=0.65 l=0.15
X47 _0798_.A2 _0722_.A vssd1 vssd1 sky130_fd_pr__nfet_01v8 ad=0.08775 pd=0.92 as=0.182 ps=1.86 w=0.65 l=0.15
X48 vssd1 fanout23.X a_25235_3861# vssd1 sky130_fd_pr__nfet_01v8 ad=0.0567 pd=0.69 as=0.1092 ps=1.36 w=0.42 l=0.15
X50 _0607_.B a_21575_4667# vssd1 vssd1 sky130_fd_pr__nfet_01v8 ad=0.169 pd=1.82 as=0.08775 ps=0.92 w=0.65 l=0.15
X51 a_4847_2589# a_4149_2223# a_4590_2335# vssd1 sky130_fd_pr__nfet_01v8 ad=0.0684 pd=0.74 as=0.0989 ps=0.995 w=0.36 l=0.15
X52 vccd1 clkbuf_1_0__f_io_in[0].X a_1591_5487# vccd1 sky130_fd_pr__pfet_01v8_hvt ad=0.0864 pd=0.91 as=0.1664 ps=1.8 w=0.64 l=0.15
X54 _0845_.C1 a_4811_10383# vssd1 vssd1 sky130_fd_pr__nfet_01v8 ad=0.08775 pd=0.92 as=0.08775 ps=0.92 w=0.65 l=0.15
X55 vccd1 temp1.dac.parallel_cells\[3\].vdac_batch.einvp_batch\[4\].vref.TE a_7939_31055# vccd1 sky130_fd_pr__pfet_01v8_hvt ad=0.32075 pd=1.685 as=0.1092 ps=1.36 w=0.42 l=0.15
X57 vssd1 a_5383_2741# a_5341_3145# vssd1 sky130_fd_pr__nfet_01v8 ad=0.1092 pd=1.36 as=0.066 ps=0.745 w=0.42 l=0.15
X58 vccd1 _0566_.A1 a_10613_7119# vccd1 sky130_fd_pr__pfet_01v8_hvt ad=0.26 pd=2.52 as=0.105 ps=1.21 w=1 l=0.15
X60 a_26099_25615# a_25401_25621# a_25842_25589# vssd1 sky130_fd_pr__nfet_01v8 ad=0.0684 pd=0.74 as=0.0989 ps=0.995 w=0.36 l=0.15
X62 vccd1 a_9926_9269# a_9853_9295# vccd1 sky130_fd_pr__pfet_01v8_hvt ad=0.178875 pd=1.26 as=0.07665 ps=0.785 w=0.42 l=0.15
X64 a_25306_6941# a_24867_6575# a_25221_6575# vssd1 sky130_fd_pr__nfet_01v8 ad=0.0621 pd=0.705 as=0.0813 ps=0.83 w=0.36 l=0.15
X65 vccd1 a_2658_25183# a_2585_25437# vccd1 sky130_fd_pr__pfet_01v8_hvt ad=0.178875 pd=1.26 as=0.07665 ps=0.785 w=0.42 l=0.15
X66 a_10459_13647# a_9761_13653# a_10202_13621# vssd1 sky130_fd_pr__nfet_01v8 ad=0.0684 pd=0.74 as=0.0989 ps=0.995 w=0.36 l=0.15
X68 a_19697_2773# a_19531_2773# vssd1 vssd1 sky130_fd_pr__nfet_01v8 ad=0.1092 pd=1.36 as=0.0567 ps=0.69 w=0.42 l=0.15
X69 a_2823_27613# a_1959_27247# a_2566_27359# vccd1 sky130_fd_pr__pfet_01v8_hvt ad=0.0567 pd=0.69 as=0.1095 ps=1.075 w=0.42 l=0.15
X70 vssd1 temp1.dac.parallel_cells\[3\].vdac_batch.einvp_batch\[4\].vref.TE a_8215_32143# vssd1 sky130_fd_pr__nfet_01v8 ad=0.097 pd=0.975 as=0.1092 ps=1.36 w=0.42 l=0.15
X71 a_10034_13647# a_9595_13653# a_9949_13647# vssd1 sky130_fd_pr__nfet_01v8 ad=0.0621 pd=0.705 as=0.0813 ps=0.83 w=0.36 l=0.15
X73 a_21499_21085# a_20635_20719# a_21242_20831# vccd1 sky130_fd_pr__pfet_01v8_hvt ad=0.0567 pd=0.69 as=0.1095 ps=1.075 w=0.42 l=0.15
X74 a_12245_6031# a_11711_6037# a_12150_6031# vccd1 sky130_fd_pr__pfet_01v8_hvt ad=0.07665 pd=0.785 as=0.06825 ps=0.745 w=0.42 l=0.15
X75 vccd1 _0809_.B2 a_4863_23413# vccd1 sky130_fd_pr__pfet_01v8_hvt ad=0.175 pd=1.35 as=0.22 ps=1.44 w=1 l=0.15
X76 a_9230_16143# _0842_.A0 a_9003_15797# vssd1 sky130_fd_pr__nfet_01v8 ad=0.118625 pd=1.015 as=0.19825 ps=1.91 w=0.65 l=0.15
X77 vccd1 a_17725_15073# _0487_.X vccd1 sky130_fd_pr__pfet_01v8_hvt ad=0.38 pd=2.76 as=0.195 ps=1.39 w=1 l=0.15
X78 a_4221_8725# _0711_.A vssd1 vssd1 sky130_fd_pr__nfet_01v8 ad=0.089375 pd=0.925 as=0.25675 ps=1.44 w=0.65 l=0.15
X79 a_22905_17455# _0994_.Q a_22833_17455# vssd1 sky130_fd_pr__nfet_01v8 ad=0.0441 pd=0.63 as=0.0441 ps=0.63 w=0.42 l=0.15
X80 vssd1 a_3559_4943# a_3727_4917# vssd1 sky130_fd_pr__nfet_01v8 ad=0.08775 pd=0.92 as=0.169 ps=1.82 w=0.65 l=0.15
X81 a_27337_3311# _1069_.Q vssd1 vssd1 sky130_fd_pr__nfet_01v8 ad=0.0813 pd=0.83 as=0.1092 ps=1.36 w=0.42 l=0.15
X82 a_25225_14441# _0966_.Q a_25143_14441# vccd1 sky130_fd_pr__pfet_01v8_hvt ad=0.135 pd=1.27 as=0.26 ps=2.52 w=1 l=0.15
X83 vccd1 _0527_.X a_16127_13103# vccd1 sky130_fd_pr__pfet_01v8_hvt ad=0.142225 pd=1.335 as=0.06615 ps=0.735 w=0.42 l=0.15
X85 vccd1 _0807_.B a_11885_14735# vccd1 sky130_fd_pr__pfet_01v8_hvt ad=0.26 pd=2.52 as=0.105 ps=1.21 w=1 l=0.15
X86 a_15427_3855# a_14729_3861# a_15170_3829# vssd1 sky130_fd_pr__nfet_01v8 ad=0.0684 pd=0.74 as=0.0989 ps=0.995 w=0.36 l=0.15
X88 a_10126_22351# a_9687_22357# a_10041_22351# vssd1 sky130_fd_pr__nfet_01v8 ad=0.0621 pd=0.705 as=0.0813 ps=0.83 w=0.36 l=0.15
X89 a_22637_16367# _1019_.Q a_22291_16617# vssd1 sky130_fd_pr__nfet_01v8 ad=0.11375 pd=1 as=0.169 ps=1.82 w=0.65 l=0.15
X92 a_2493_27613# a_1959_27247# a_2398_27613# vccd1 sky130_fd_pr__pfet_01v8_hvt ad=0.07665 pd=0.785 as=0.06825 ps=0.745 w=0.42 l=0.15
X93 a_20709_5853# a_20175_5487# a_20614_5853# vccd1 sky130_fd_pr__pfet_01v8_hvt ad=0.07665 pd=0.785 as=0.06825 ps=0.745 w=0.42 l=0.15
X94 vccd1 a_21426_19743# a_21353_19997# vccd1 sky130_fd_pr__pfet_01v8_hvt ad=0.178875 pd=1.26 as=0.07665 ps=0.785 w=0.42 l=0.15
X95 vccd1 _0805_.A a_4386_19087# vccd1 sky130_fd_pr__pfet_01v8_hvt ad=0.14075 pd=1.325 as=0.1092 ps=1.36 w=0.42 l=0.15
X96 a_8473_7125# a_8307_7125# vccd1 vccd1 sky130_fd_pr__pfet_01v8_hvt ad=0.1664 pd=1.8 as=0.0864 ps=0.91 w=0.64 l=0.15
X97 a_21169_21085# a_20635_20719# a_21074_21085# vccd1 sky130_fd_pr__pfet_01v8_hvt ad=0.07665 pd=0.785 as=0.06825 ps=0.745 w=0.42 l=0.15
X98 vccd1 a_21115_21237# a_21031_21263# vccd1 sky130_fd_pr__pfet_01v8_hvt ad=0.1113 pd=1.37 as=0.0882 ps=0.84 w=0.42 l=0.15
X99 vssd1 a_21039_5853# a_21207_5755# vssd1 sky130_fd_pr__nfet_01v8 ad=0.08775 pd=0.92 as=0.169 ps=1.82 w=0.65 l=0.15
X100 a_22181_16917# a_22015_16917# vssd1 vssd1 sky130_fd_pr__nfet_01v8 ad=0.1092 pd=1.36 as=0.0567 ps=0.69 w=0.42 l=0.15
X101 vssd1 _0722_.A _0798_.A2 vssd1 sky130_fd_pr__nfet_01v8 ad=0.08775 pd=0.92 as=0.08775 ps=0.92 w=0.65 l=0.15
X102 a_14637_18005# a_14471_18005# vssd1 vssd1 sky130_fd_pr__nfet_01v8 ad=0.1092 pd=1.36 as=0.0567 ps=0.69 w=0.42 l=0.15
X103 _0650_.X a_25511_11471# vccd1 vccd1 sky130_fd_pr__pfet_01v8_hvt ad=0.26 pd=2.52 as=0.155 ps=1.31 w=1 l=0.15
X104 vccd1 a_1674_31599# temp1.dcdc.A vccd1 sky130_fd_pr__pfet_01v8_hvt ad=0.14 pd=1.28 as=0.14 ps=1.28 w=1 l=0.15
X107 vccd1 a_2962_14735# clkbuf_1_1__f_io_in[0].A vccd1 sky130_fd_pr__pfet_01v8_hvt ad=0.14 pd=1.28 as=0.14 ps=1.28 w=1 l=0.15
X109 temp1.capload\[15\].cap.B a_2686_31055# vccd1 vccd1 sky130_fd_pr__pfet_01v8_hvt ad=0.14 pd=1.28 as=0.14 ps=1.28 w=1 l=0.15
X110 vssd1 _0829_.A1 _0864_.Y vssd1 sky130_fd_pr__nfet_01v8 ad=0.169 pd=1.82 as=0.08775 ps=0.92 w=0.65 l=0.15
X112 a_14139_4943# a_13275_4949# a_13882_4917# vccd1 sky130_fd_pr__pfet_01v8_hvt ad=0.0567 pd=0.69 as=0.1095 ps=1.075 w=0.42 l=0.15
X113 vssd1 a_16897_12897# _0533_.X vssd1 sky130_fd_pr__nfet_01v8 ad=0.247 pd=2.06 as=0.12675 ps=1.04 w=0.65 l=0.15
X114 a_13265_7485# _0521_.A a_13183_7232# vssd1 sky130_fd_pr__nfet_01v8 ad=0.0441 pd=0.63 as=0.1092 ps=1.36 w=0.42 l=0.15
X115 _0807_.B a_9043_12567# vssd1 vssd1 sky130_fd_pr__nfet_01v8 ad=0.08775 pd=0.92 as=0.097 ps=0.975 w=0.65 l=0.15
X118 vssd1 _0679_.A2 a_8033_10703# vssd1 sky130_fd_pr__nfet_01v8 ad=0.12675 pd=1.04 as=0.091 ps=0.93 w=0.65 l=0.15
X119 vccd1 a_4802_27247# clkbuf_1_1__f__0390_.A vccd1 sky130_fd_pr__pfet_01v8_hvt ad=0.14 pd=1.28 as=0.14 ps=1.28 w=1 l=0.15
X120 a_5483_4765# a_4701_4399# a_5399_4765# vccd1 sky130_fd_pr__pfet_01v8_hvt ad=0.0882 pd=0.84 as=0.0567 ps=0.69 w=0.42 l=0.15
X123 a_6553_17705# _0717_.A2 vccd1 vccd1 sky130_fd_pr__pfet_01v8_hvt ad=0.265 pd=2.53 as=0.1475 ps=1.295 w=1 l=0.15
X124 vccd1 a_2962_14735# clkbuf_1_1__f_io_in[0].A vccd1 sky130_fd_pr__pfet_01v8_hvt ad=0.14 pd=1.28 as=0.14 ps=1.28 w=1 l=0.15
X125 vccd1 a_25658_8863# a_25585_9117# vccd1 sky130_fd_pr__pfet_01v8_hvt ad=0.178875 pd=1.26 as=0.07665 ps=0.785 w=0.42 l=0.15
X127 vccd1 a_23047_22325# a_22963_22351# vccd1 sky130_fd_pr__pfet_01v8_hvt ad=0.1113 pd=1.37 as=0.0882 ps=0.84 w=0.42 l=0.15
X129 vccd1 _0471_.X a_12763_12879# vccd1 sky130_fd_pr__pfet_01v8_hvt ad=0.172 pd=1.46 as=0.0777 ps=0.79 w=0.42 l=0.15
X130 a_26413_18543# a_26247_18543# vssd1 vssd1 sky130_fd_pr__nfet_01v8 ad=0.1092 pd=1.36 as=0.0567 ps=0.69 w=0.42 l=0.15
X131 vssd1 _0844_.B a_4902_25981# vssd1 sky130_fd_pr__nfet_01v8 ad=0.0567 pd=0.69 as=0.05775 ps=0.695 w=0.42 l=0.15
X132 vccd1 a_16515_20987# a_16431_21085# vccd1 sky130_fd_pr__pfet_01v8_hvt ad=0.1113 pd=1.37 as=0.0882 ps=0.84 w=0.42 l=0.15
X133 a_19793_15279# _0962_.D vssd1 vssd1 sky130_fd_pr__nfet_01v8 ad=0.0813 pd=0.83 as=0.1092 ps=1.36 w=0.42 l=0.15
X134 vccd1 _0619_.B1 a_23201_10089# vccd1 sky130_fd_pr__pfet_01v8_hvt ad=0.155 pd=1.31 as=0.16 ps=1.32 w=1 l=0.15
X136 a_22269_2223# a_21279_2223# a_22143_2589# vssd1 sky130_fd_pr__nfet_01v8 ad=0.066 pd=0.745 as=0.0684 ps=0.74 w=0.36 l=0.15
X137 a_22963_1679# a_22181_1685# a_22879_1679# vccd1 sky130_fd_pr__pfet_01v8_hvt ad=0.0882 pd=0.84 as=0.0567 ps=0.69 w=0.42 l=0.15
X138 a_3057_18319# _0872_.A1 vssd1 vssd1 sky130_fd_pr__nfet_01v8 ad=0.08775 pd=0.92 as=0.169 ps=1.82 w=0.65 l=0.15
X139 vccd1 clkbuf_1_1__f__0390_.A a_2686_28879# vccd1 sky130_fd_pr__pfet_01v8_hvt ad=0.14 pd=1.28 as=0.14 ps=1.28 w=1 l=0.15
X140 a_17773_15529# _0522_.X a_17691_15279# vccd1 sky130_fd_pr__pfet_01v8_hvt ad=0.135 pd=1.27 as=0.26 ps=2.52 w=1 l=0.15
X142 _0814_.B1 _0798_.A2 a_5909_26159# vssd1 sky130_fd_pr__nfet_01v8 ad=0.169 pd=1.82 as=0.08775 ps=0.92 w=0.65 l=0.15
X145 _1050_.Q a_19183_20149# vccd1 vccd1 sky130_fd_pr__pfet_01v8_hvt ad=0.26 pd=2.52 as=0.135 ps=1.27 w=1 l=0.15
X146 vccd1 a_2686_28879# _0845_.A2 vccd1 sky130_fd_pr__pfet_01v8_hvt ad=0.14 pd=1.28 as=0.14 ps=1.28 w=1 l=0.15
R0 temp1.capload\[10\].cap.A vssd1 sky130_fd_pr__res_generic_po w=0.48 l=0.045
X147 a_10084_9839# _0545_.B1 a_9993_9839# vssd1 sky130_fd_pr__nfet_01v8 ad=0.08775 pd=0.92 as=0.099125 ps=0.955 w=0.65 l=0.15
X148 a_19107_21263# a_18409_21269# a_18850_21237# vssd1 sky130_fd_pr__nfet_01v8 ad=0.0684 pd=0.74 as=0.0989 ps=0.995 w=0.36 l=0.15
X149 a_6449_2589# a_5915_2223# a_6354_2589# vccd1 sky130_fd_pr__pfet_01v8_hvt ad=0.07665 pd=0.785 as=0.06825 ps=0.745 w=0.42 l=0.15
X150 _1050_.Q a_19183_20149# vssd1 vssd1 sky130_fd_pr__nfet_01v8 ad=0.169 pd=1.82 as=0.08775 ps=0.92 w=0.65 l=0.15
X151 a_1674_32143# clkbuf_1_1__f_net57.A vccd1 vccd1 sky130_fd_pr__pfet_01v8_hvt ad=0.14 pd=1.28 as=0.265 ps=2.53 w=1 l=0.15
X153 a_20755_14735# a_19973_14741# a_20671_14735# vccd1 sky130_fd_pr__pfet_01v8_hvt ad=0.0882 pd=0.84 as=0.0567 ps=0.69 w=0.42 l=0.15
X155 a_20985_19631# a_20819_19631# vssd1 vssd1 sky130_fd_pr__nfet_01v8 ad=0.1092 pd=1.36 as=0.0567 ps=0.69 w=0.42 l=0.15
X156 _0472_.X a_8859_17999# vccd1 vccd1 sky130_fd_pr__pfet_01v8_hvt ad=0.14 pd=1.28 as=0.14 ps=1.28 w=1 l=0.15
X158 a_22169_6397# _0575_.B a_22097_6397# vssd1 sky130_fd_pr__nfet_01v8 ad=0.0441 pd=0.63 as=0.0441 ps=0.63 w=0.42 l=0.15
X160 vssd1 temp1.dac.parallel_cells\[4\].vdac_batch.einvp_batch\[12\].vref.TE a_10699_31599# vssd1 sky130_fd_pr__nfet_01v8 ad=0.097 pd=0.975 as=0.1092 ps=1.36 w=0.42 l=0.15
X161 vssd1 a_17435_22075# a_17393_21807# vssd1 sky130_fd_pr__nfet_01v8 ad=0.1092 pd=1.36 as=0.066 ps=0.745 w=0.42 l=0.15
X162 vccd1 _0922_.CLK a_2787_7119# vccd1 sky130_fd_pr__pfet_01v8_hvt ad=0.1625 pd=1.325 as=0.265 ps=2.53 w=1 l=0.15
X164 a_17420_18319# _0522_.B1 a_16929_17973# vssd1 sky130_fd_pr__nfet_01v8 ad=0.06825 pd=0.86 as=0.143 ps=1.09 w=0.65 l=0.15
X165 a_8763_14735# _0546_.B1 a_8545_14709# vccd1 sky130_fd_pr__pfet_01v8_hvt ad=0.1375 pd=1.275 as=0.26 ps=2.52 w=1 l=0.15
X166 vssd1 a_15963_1653# a_15921_2057# vssd1 sky130_fd_pr__nfet_01v8 ad=0.1092 pd=1.36 as=0.066 ps=0.745 w=0.42 l=0.15
X168 a_24941_23445# a_24775_23445# vccd1 vccd1 sky130_fd_pr__pfet_01v8_hvt ad=0.1664 pd=1.8 as=0.0864 ps=0.91 w=0.64 l=0.15
X169 vccd1 _0740_.X a_4769_23145# vccd1 sky130_fd_pr__pfet_01v8_hvt ad=0.26 pd=2.52 as=0.135 ps=1.27 w=1 l=0.15
X170 _1042_.Q a_18447_3579# vccd1 vccd1 sky130_fd_pr__pfet_01v8_hvt ad=0.26 pd=2.52 as=0.135 ps=1.27 w=1 l=0.15
X171 vssd1 _0662_.A3 a_16097_14013# vssd1 sky130_fd_pr__nfet_01v8 ad=0.13165 pd=1.14 as=0.0441 ps=0.63 w=0.42 l=0.15
X172 temp1.dcdc.A a_1674_31599# vssd1 vssd1 sky130_fd_pr__nfet_01v8 ad=0.0588 pd=0.7 as=0.0588 ps=0.7 w=0.42 l=0.15
X173 vccd1 a_15963_27765# a_15879_27791# vccd1 sky130_fd_pr__pfet_01v8_hvt ad=0.1113 pd=1.37 as=0.0882 ps=0.84 w=0.42 l=0.15
X174 vssd1 _0872_.A1 a_4705_19087# vssd1 sky130_fd_pr__nfet_01v8 ad=0.097 pd=0.975 as=0.1092 ps=1.36 w=0.42 l=0.15
X175 vccd1 a_20195_6005# a_20111_6031# vccd1 sky130_fd_pr__pfet_01v8_hvt ad=0.1113 pd=1.37 as=0.0882 ps=0.84 w=0.42 l=0.15
X176 a_2455_9117# a_1757_8751# a_2198_8863# vssd1 sky130_fd_pr__nfet_01v8 ad=0.0684 pd=0.74 as=0.0989 ps=0.995 w=0.36 l=0.15
X177 _0920_.Q a_16515_20987# vccd1 vccd1 sky130_fd_pr__pfet_01v8_hvt ad=0.26 pd=2.52 as=0.135 ps=1.27 w=1 l=0.15
X178 a_14269_20181# a_14103_20181# vccd1 vccd1 sky130_fd_pr__pfet_01v8_hvt ad=0.1664 pd=1.8 as=0.0864 ps=0.91 w=0.64 l=0.15
X179 _0588_.A1 a_15319_12283# vssd1 vssd1 sky130_fd_pr__nfet_01v8 ad=0.169 pd=1.82 as=0.08775 ps=0.92 w=0.65 l=0.15
X180 a_11908_20719# a_11509_20719# a_11782_21085# vssd1 sky130_fd_pr__nfet_01v8 ad=0.0696 pd=0.765 as=0.0621 ps=0.705 w=0.36 l=0.15
X181 vccd1 a_15078_17973# a_15005_17999# vccd1 sky130_fd_pr__pfet_01v8_hvt ad=0.178875 pd=1.26 as=0.07665 ps=0.785 w=0.42 l=0.15
X182 a_4769_23145# _0788_.C a_4403_22869# vccd1 sky130_fd_pr__pfet_01v8_hvt ad=0.135 pd=1.27 as=0.135 ps=1.27 w=1 l=0.15
X183 a_12893_21807# a_12716_21807# vssd1 vssd1 sky130_fd_pr__nfet_01v8 ad=0.169 pd=1.82 as=0.097 ps=0.975 w=0.65 l=0.15
X185 a_9999_1501# a_9301_1135# a_9742_1247# vssd1 sky130_fd_pr__nfet_01v8 ad=0.0684 pd=0.74 as=0.0989 ps=0.995 w=0.36 l=0.15
X187 a_23837_9295# a_23303_9301# a_23742_9295# vccd1 sky130_fd_pr__pfet_01v8_hvt ad=0.07665 pd=0.785 as=0.06825 ps=0.745 w=0.42 l=0.15
X188 vccd1 a_7902_6005# a_7829_6031# vccd1 sky130_fd_pr__pfet_01v8_hvt ad=0.178875 pd=1.26 as=0.07665 ps=0.785 w=0.42 l=0.15
X189 vssd1 a_12743_8181# a_12701_8585# vssd1 sky130_fd_pr__nfet_01v8 ad=0.1092 pd=1.36 as=0.066 ps=0.745 w=0.42 l=0.15
X190 a_9853_9295# a_9319_9301# a_9758_9295# vccd1 sky130_fd_pr__pfet_01v8_hvt ad=0.07665 pd=0.785 as=0.06825 ps=0.745 w=0.42 l=0.15
X191 vccd1 fanout23.X a_26983_3311# vccd1 sky130_fd_pr__pfet_01v8_hvt ad=0.0864 pd=0.91 as=0.1664 ps=1.8 w=0.64 l=0.15
X192 vssd1 _0734_.A2 _0696_.A1 vssd1 sky130_fd_pr__nfet_01v8 ad=0.169 pd=1.82 as=0.08775 ps=0.92 w=0.65 l=0.15
X193 a_27847_10205# a_26983_9839# a_27590_9951# vccd1 sky130_fd_pr__pfet_01v8_hvt ad=0.0567 pd=0.69 as=0.1095 ps=1.075 w=0.42 l=0.15
X196 a_20387_15645# a_19605_15279# a_20303_15645# vccd1 sky130_fd_pr__pfet_01v8_hvt ad=0.0882 pd=0.84 as=0.0567 ps=0.69 w=0.42 l=0.15
X197 vssd1 a_1766_29423# clkbuf_1_1__f_net57.A vssd1 sky130_fd_pr__nfet_01v8 ad=0.05775 pd=0.695 as=0.0588 ps=0.7 w=0.42 l=0.15
X200 a_12428_1135# a_11895_1385# _0854_.B vssd1 sky130_fd_pr__nfet_01v8 ad=0.08775 pd=0.92 as=0.169 ps=1.82 w=0.65 l=0.15
X202 a_12207_18909# a_11343_18543# a_11950_18655# vccd1 sky130_fd_pr__pfet_01v8_hvt ad=0.0567 pd=0.69 as=0.1095 ps=1.075 w=0.42 l=0.15
X203 a_25401_7125# a_25235_7125# vccd1 vccd1 sky130_fd_pr__pfet_01v8_hvt ad=0.1664 pd=1.8 as=0.0864 ps=0.91 w=0.64 l=0.15
X206 a_25497_12015# _0893_.Q vccd1 vccd1 sky130_fd_pr__pfet_01v8_hvt ad=0.05775 pd=0.695 as=0.1092 ps=1.36 w=0.42 l=0.15
X207 a_15611_3677# a_14913_3311# a_15354_3423# vssd1 sky130_fd_pr__nfet_01v8 ad=0.0684 pd=0.74 as=0.0989 ps=0.995 w=0.36 l=0.15
X208 vccd1 a_2626_9269# _0835_.A1 vccd1 sky130_fd_pr__pfet_01v8_hvt ad=0.1425 pd=1.285 as=0.135 ps=1.27 w=1 l=0.15
X210 _1012_.Q a_28015_16635# vccd1 vccd1 sky130_fd_pr__pfet_01v8_hvt ad=0.26 pd=2.52 as=0.135 ps=1.27 w=1 l=0.15
X211 vccd1 _0670_.A2 a_15005_5737# vccd1 sky130_fd_pr__pfet_01v8_hvt ad=0.1575 pd=1.315 as=0.165 ps=1.33 w=1 l=0.15
X212 a_8803_4943# a_8105_4949# a_8546_4917# vssd1 sky130_fd_pr__nfet_01v8 ad=0.0684 pd=0.74 as=0.0989 ps=0.995 w=0.36 l=0.15
X213 a_22653_9295# _0620_.X a_22547_9295# vccd1 sky130_fd_pr__pfet_01v8_hvt ad=0.135 pd=1.27 as=0.19 ps=1.38 w=1 l=0.15
X214 a_6682_27907# _0825_.A0 a_6600_27907# vccd1 sky130_fd_pr__pfet_01v8_hvt ad=0.0441 pd=0.63 as=0.1092 ps=1.36 w=0.42 l=0.15
X215 a_9333_16143# _0838_.A0 a_9230_16143# vssd1 sky130_fd_pr__nfet_01v8 ad=0.118625 pd=1.015 as=0.118625 ps=1.015 w=0.65 l=0.15
X216 a_15929_4399# _0497_.A1 vssd1 vssd1 sky130_fd_pr__nfet_01v8 ad=0.0813 pd=0.83 as=0.1092 ps=1.36 w=0.42 l=0.15
X217 vssd1 _0888_.CLK a_4627_4949# vssd1 sky130_fd_pr__nfet_01v8 ad=0.0567 pd=0.69 as=0.1092 ps=1.36 w=0.42 l=0.15
X218 _0843_.Y _0843_.B vssd1 vssd1 sky130_fd_pr__nfet_01v8 ad=0.08775 pd=0.92 as=0.08775 ps=0.92 w=0.65 l=0.15
X219 a_2953_26709# a_2787_26709# vssd1 vssd1 sky130_fd_pr__nfet_01v8 ad=0.1092 pd=1.36 as=0.0567 ps=0.69 w=0.42 l=0.15
X220 a_16826_26271# a_16658_26525# vssd1 vssd1 sky130_fd_pr__nfet_01v8 ad=0.0989 pd=0.995 as=0.12095 ps=1.085 w=0.64 l=0.15
X222 vssd1 _0717_.A2 a_10585_15055# vssd1 sky130_fd_pr__nfet_01v8 ad=0.102375 pd=0.965 as=0.10725 ps=0.98 w=0.65 l=0.15
X223 a_7829_6031# a_7295_6037# a_7734_6031# vccd1 sky130_fd_pr__pfet_01v8_hvt ad=0.07665 pd=0.785 as=0.06825 ps=0.745 w=0.42 l=0.15
X224 vssd1 a_12316_24135# temp1.dac.parallel_cells\[2\].vdac_batch.einvp_batch\[0\].pupd.A vssd1 sky130_fd_pr__nfet_01v8 ad=0.1105 pd=0.99 as=0.091 ps=0.93 w=0.65 l=0.15
X225 vccd1 a_16090_20831# a_16017_21085# vccd1 sky130_fd_pr__pfet_01v8_hvt ad=0.178875 pd=1.26 as=0.07665 ps=0.785 w=0.42 l=0.15
X226 a_25432_6575# a_25033_6575# a_25306_6941# vssd1 sky130_fd_pr__nfet_01v8 ad=0.0696 pd=0.765 as=0.0621 ps=0.705 w=0.36 l=0.15
X227 temp1.dcdc.A a_1674_31599# vccd1 vccd1 sky130_fd_pr__pfet_01v8_hvt ad=0.14 pd=1.28 as=0.14 ps=1.28 w=1 l=0.15
X229 a_2585_25621# a_2419_25621# vssd1 vssd1 sky130_fd_pr__nfet_01v8 ad=0.1092 pd=1.36 as=0.0567 ps=0.69 w=0.42 l=0.15
X230 vssd1 a_22990_14303# a_22948_14191# vssd1 sky130_fd_pr__nfet_01v8 ad=0.12095 pd=1.085 as=0.0696 ps=0.765 w=0.42 l=0.15
X231 _0860_.A a_2114_1653# vssd1 vssd1 sky130_fd_pr__nfet_01v8 ad=0.08775 pd=0.92 as=0.18525 ps=1.87 w=0.65 l=0.15
X232 a_5888_31055# a_5639_31055# vccd1 vccd1 sky130_fd_pr__pfet_01v8_hvt ad=0.1825 pd=1.365 as=0.32075 ps=1.685 w=1 l=0.15
X233 vccd1 a_22879_20175# a_23047_20149# vccd1 sky130_fd_pr__pfet_01v8_hvt ad=0.135 pd=1.27 as=0.27 ps=2.54 w=1 l=0.15
X234 _0987_.D a_9983_16885# vccd1 vccd1 sky130_fd_pr__pfet_01v8_hvt ad=0.26 pd=2.52 as=0.135 ps=1.27 w=1 l=0.15
X235 a_2673_4233# a_1683_3861# a_2547_3855# vssd1 sky130_fd_pr__nfet_01v8 ad=0.066 pd=0.745 as=0.0684 ps=0.74 w=0.36 l=0.15
X238 vssd1 _1053_.CLK a_14563_23445# vssd1 sky130_fd_pr__nfet_01v8 ad=0.0567 pd=0.69 as=0.1092 ps=1.36 w=0.42 l=0.15
X239 vccd1 a_2566_27359# a_2493_27613# vccd1 sky130_fd_pr__pfet_01v8_hvt ad=0.178875 pd=1.26 as=0.07665 ps=0.785 w=0.42 l=0.15
X240 a_25401_25621# a_25235_25621# vssd1 vssd1 sky130_fd_pr__nfet_01v8 ad=0.1092 pd=1.36 as=0.0567 ps=0.69 w=0.42 l=0.15
X241 vccd1 a_10627_13621# a_10543_13647# vccd1 sky130_fd_pr__pfet_01v8_hvt ad=0.1113 pd=1.37 as=0.0882 ps=0.84 w=0.42 l=0.15
X242 temp1.dcdc.A a_1674_31599# vccd1 vccd1 sky130_fd_pr__pfet_01v8_hvt ad=0.14 pd=1.28 as=0.14 ps=1.28 w=1 l=0.15
X243 vccd1 _0438_.A a_9043_12567# vccd1 sky130_fd_pr__pfet_01v8_hvt ad=0.149 pd=1.325 as=0.1664 ps=1.8 w=0.64 l=0.15
X244 a_12736_21641# a_12337_21269# a_12610_21263# vssd1 sky130_fd_pr__nfet_01v8 ad=0.0696 pd=0.765 as=0.0621 ps=0.705 w=0.36 l=0.15
X245 a_16090_20831# a_15922_21085# vssd1 vssd1 sky130_fd_pr__nfet_01v8 ad=0.0989 pd=0.995 as=0.12095 ps=1.085 w=0.64 l=0.15
X246 vssd1 a_22879_20175# a_23047_20149# vssd1 sky130_fd_pr__nfet_01v8 ad=0.08775 pd=0.92 as=0.169 ps=1.82 w=0.65 l=0.15
X248 vccd1 _0824_.Y a_13183_25615# vccd1 sky130_fd_pr__pfet_01v8_hvt ad=0.32075 pd=1.685 as=0.1092 ps=1.36 w=0.42 l=0.15
X249 a_2686_10383# clkbuf_1_1__f_io_in[0].A vccd1 vccd1 sky130_fd_pr__pfet_01v8_hvt ad=0.14 pd=1.28 as=0.265 ps=2.53 w=1 l=0.15
X250 a_21994_22173# a_21555_21807# a_21909_21807# vssd1 sky130_fd_pr__nfet_01v8 ad=0.0621 pd=0.705 as=0.0813 ps=0.83 w=0.36 l=0.15
X253 a_12981_9301# a_12815_9301# vccd1 vccd1 sky130_fd_pr__pfet_01v8_hvt ad=0.1664 pd=1.8 as=0.0864 ps=0.91 w=0.64 l=0.15
X254 vssd1 _0874_.X a_2684_17231# vssd1 sky130_fd_pr__nfet_01v8 ad=0.17225 pd=1.83 as=0.091 ps=0.93 w=0.65 l=0.15
X256 a_23650_21263# a_23211_21269# a_23565_21263# vssd1 sky130_fd_pr__nfet_01v8 ad=0.0621 pd=0.705 as=0.0813 ps=0.83 w=0.36 l=0.15
X258 vccd1 _1077_.Q a_9963_17455# vccd1 sky130_fd_pr__pfet_01v8_hvt ad=0.149 pd=1.325 as=0.1664 ps=1.8 w=0.64 l=0.15
X259 vccd1 a_18355_6005# a_18271_6031# vccd1 sky130_fd_pr__pfet_01v8_hvt ad=0.1113 pd=1.37 as=0.0882 ps=0.84 w=0.42 l=0.15
X260 a_25585_9117# a_25051_8751# a_25490_9117# vccd1 sky130_fd_pr__pfet_01v8_hvt ad=0.07665 pd=0.785 as=0.06825 ps=0.745 w=0.42 l=0.15
X261 _0776_.A2 a_7623_10901# vssd1 vssd1 sky130_fd_pr__nfet_01v8 ad=0.08775 pd=0.92 as=0.169 ps=1.82 w=0.65 l=0.15
X262 a_13771_22351# a_13073_22357# a_13514_22325# vssd1 sky130_fd_pr__nfet_01v8 ad=0.0684 pd=0.74 as=0.0989 ps=0.995 w=0.36 l=0.15
X263 _0684_.A1 _0644_.X vssd1 vssd1 sky130_fd_pr__nfet_01v8 ad=0.08775 pd=0.92 as=0.08775 ps=0.92 w=0.65 l=0.15
X264 a_19099_20175# a_18317_20181# a_19015_20175# vccd1 sky130_fd_pr__pfet_01v8_hvt ad=0.0882 pd=0.84 as=0.0567 ps=0.69 w=0.42 l=0.15
X266 vccd1 a_19770_3829# a_19697_3855# vccd1 sky130_fd_pr__pfet_01v8_hvt ad=0.178875 pd=1.26 as=0.07665 ps=0.785 w=0.42 l=0.15
X267 vssd1 _0745_.A1 a_6563_12015# vssd1 sky130_fd_pr__nfet_01v8 ad=0.105625 pd=0.975 as=0.169 ps=1.82 w=0.65 l=0.15
X269 vssd1 a_20303_15645# a_20471_15547# vssd1 sky130_fd_pr__nfet_01v8 ad=0.08775 pd=0.92 as=0.169 ps=1.82 w=0.65 l=0.15
X270 vccd1 _0873_.Y a_2599_16911# vccd1 sky130_fd_pr__pfet_01v8_hvt ad=0.14 pd=1.28 as=0.1375 ps=1.275 w=1 l=0.15
X271 a_22461_2767# _0497_.B2 vccd1 vccd1 sky130_fd_pr__pfet_01v8_hvt ad=0.05775 pd=0.695 as=0.1092 ps=1.36 w=0.42 l=0.15
X272 vccd1 _0685_.B a_6498_10089# vccd1 sky130_fd_pr__pfet_01v8_hvt ad=0.14575 pd=1.335 as=0.0441 ps=0.63 w=0.42 l=0.15
X274 _0673_.A1 a_12927_3829# vccd1 vccd1 sky130_fd_pr__pfet_01v8_hvt ad=0.26 pd=2.52 as=0.135 ps=1.27 w=1 l=0.15
X276 a_4248_29673# _0845_.A1 vccd1 vccd1 sky130_fd_pr__pfet_01v8_hvt ad=0.14 pd=1.28 as=0.265 ps=2.53 w=1 l=0.15
X277 a_21718_2589# a_21445_2223# a_21633_2223# vccd1 sky130_fd_pr__pfet_01v8_hvt ad=0.06825 pd=0.745 as=0.05775 ps=0.695 w=0.42 l=0.15
X278 vccd1 a_15170_23413# a_15097_23439# vccd1 sky130_fd_pr__pfet_01v8_hvt ad=0.178875 pd=1.26 as=0.07665 ps=0.785 w=0.42 l=0.15
X279 vccd1 a_7775_3829# a_7691_3855# vccd1 sky130_fd_pr__pfet_01v8_hvt ad=0.1113 pd=1.37 as=0.0882 ps=0.84 w=0.42 l=0.15
X280 _0506_.X a_22659_10927# vssd1 vssd1 sky130_fd_pr__nfet_01v8 ad=0.169 pd=1.82 as=0.102375 ps=0.965 w=0.65 l=0.15
X281 a_15105_11471# _0588_.A1 vccd1 vccd1 sky130_fd_pr__pfet_01v8_hvt ad=0.16 pd=1.32 as=0.2529 ps=2.52 w=1 l=0.15
X282 vccd1 temp1.capload\[14\].cap_44.LO temp1.capload\[14\].cap.Y vccd1 sky130_fd_pr__pfet_01v8_hvt ad=0.26 pd=2.52 as=0.135 ps=1.27 w=1 l=0.15
X283 a_27422_10205# a_27149_9839# a_27337_9839# vccd1 sky130_fd_pr__pfet_01v8_hvt ad=0.06825 pd=0.745 as=0.05775 ps=0.695 w=0.42 l=0.15
X284 vccd1 _0827_.A a_7479_29673# vccd1 sky130_fd_pr__pfet_01v8_hvt ad=0.135 pd=1.27 as=0.28 ps=2.56 w=1 l=0.15
X286 _0471_.X a_9503_19087# vccd1 vccd1 sky130_fd_pr__pfet_01v8_hvt ad=0.14 pd=1.28 as=0.165 ps=1.33 w=1 l=0.15
X288 a_4337_1135# _0849_.X vccd1 vccd1 sky130_fd_pr__pfet_01v8_hvt ad=0.05775 pd=0.695 as=0.1092 ps=1.36 w=0.42 l=0.15
X289 a_2381_16885# _0861_.B1 vssd1 vssd1 sky130_fd_pr__nfet_01v8 ad=0.089375 pd=0.925 as=0.25675 ps=1.44 w=0.65 l=0.15
X290 vssd1 a_23139_2741# a_23097_3145# vssd1 sky130_fd_pr__nfet_01v8 ad=0.1092 pd=1.36 as=0.066 ps=0.745 w=0.42 l=0.15
X291 a_8746_7119# a_8307_7125# a_8661_7119# vssd1 sky130_fd_pr__nfet_01v8 ad=0.0621 pd=0.705 as=0.0813 ps=0.83 w=0.36 l=0.15
X292 a_22373_12559# _0563_.B1 a_22457_12559# vccd1 sky130_fd_pr__pfet_01v8_hvt ad=0.26 pd=2.52 as=0.135 ps=1.27 w=1 l=0.15
X293 a_10948_21813# _0441_.B a_10876_21813# vssd1 sky130_fd_pr__nfet_01v8 ad=0.05355 pd=0.675 as=0.0441 ps=0.63 w=0.42 l=0.15
X294 a_2136_9673# a_1757_9301# a_2039_9295# vssd1 sky130_fd_pr__nfet_01v8 ad=0.0687 pd=0.76 as=0.0594 ps=0.69 w=0.36 l=0.15
X295 a_5445_24527# _0809_.B2 _0788_.C vccd1 sky130_fd_pr__pfet_01v8_hvt ad=0.105 pd=1.21 as=0.26 ps=2.52 w=1 l=0.15
X296 a_2566_1247# a_2398_1501# vssd1 vssd1 sky130_fd_pr__nfet_01v8 ad=0.0989 pd=0.995 as=0.12095 ps=1.085 w=0.64 l=0.15
X297 a_21357_13103# _0890_.D vssd1 vssd1 sky130_fd_pr__nfet_01v8 ad=0.0813 pd=0.83 as=0.1092 ps=1.36 w=0.42 l=0.15
X299 a_23634_26677# a_23466_26703# vccd1 vccd1 sky130_fd_pr__pfet_01v8_hvt ad=0.1095 pd=1.075 as=0.178875 ps=1.26 w=0.75 l=0.15
X301 a_13360_25935# _0824_.Y vssd1 vssd1 sky130_fd_pr__nfet_01v8 ad=0.235625 pd=1.375 as=0.097 ps=0.975 w=0.65 l=0.15
X302 a_6559_19087# _0440_.A vccd1 vccd1 sky130_fd_pr__pfet_01v8_hvt ad=0.135 pd=1.27 as=0.135 ps=1.27 w=1 l=0.15
X303 vssd1 _0675_.C a_15391_8323# vssd1 sky130_fd_pr__nfet_01v8 ad=0.0567 pd=0.69 as=0.0693 ps=0.75 w=0.42 l=0.15
R1 vccd1 temp1.capload\[6\].cap_51.HI sky130_fd_pr__res_generic_po w=0.48 l=0.045
X304 a_25217_7663# a_25051_7663# vccd1 vccd1 sky130_fd_pr__pfet_01v8_hvt ad=0.1664 pd=1.8 as=0.0864 ps=0.91 w=0.64 l=0.15
X305 vssd1 fanout10.A a_10791_29967# vssd1 sky130_fd_pr__nfet_01v8 ad=0.097 pd=0.975 as=0.1092 ps=1.36 w=0.42 l=0.15
X307 a_21775_18909# a_20911_18543# a_21518_18655# vccd1 sky130_fd_pr__pfet_01v8_hvt ad=0.0567 pd=0.69 as=0.1095 ps=1.075 w=0.42 l=0.15
X309 vccd1 _0917_.CLK a_14287_9839# vccd1 sky130_fd_pr__pfet_01v8_hvt ad=0.0864 pd=0.91 as=0.1664 ps=1.8 w=0.64 l=0.15